30
XYZ from PySCF
N          -0.49828        1.17583        4.89209
C           0.60438        1.88543        4.70046
N           1.86995        1.44346        4.44039
H           2.15836        0.48510        4.37196
C           0.71855        3.26914        4.73635
N           2.01480        3.66316        4.51172
N          -1.58262        3.28149        5.18865
N          -0.50360        5.31624        5.05160
H          -1.33897        5.73742        5.41284
H           0.36106        5.81615        5.13841
C          -1.54114        1.95477        5.13038
H          -2.48566        1.44987        5.30341
C          -0.46253        3.97374        4.99989
C           2.66354        2.55025        4.34269
H           3.72117        2.46760        4.14882
N           1.23632        4.39718        8.02936
C           2.32665        3.68043        7.79865
N           3.59921        4.11232        7.56247
H           3.89094        5.07006        7.49523
C           2.40892        2.29581        7.72813
N           3.68861        1.89135        7.44115
N           0.10392        2.29936        8.15814
N           1.14071        0.25951        7.87913
H           0.23389       -0.16486        7.82377
H           1.94856       -0.26296        7.60108
C           0.17397        3.62547        8.19691
H          -0.76503        4.13586        8.38327
C           1.20928        1.59942        7.92125
C           4.36152        3.00053        7.34961
H           5.41634        3.07226        7.13377
