30
XYZ from PySCF
N          -1.49823        3.48330        2.02836
C          -0.45199        2.98818        2.67894
N           0.60160        2.27450        2.15755
H           0.72056        2.02808        1.19028
C          -0.18614        3.08198        4.04371
N           1.00576        2.43723        4.33997
N          -2.20453        4.28882        4.16492
N          -1.06353        3.97875        6.13610
H          -1.81585        4.49593        6.55629
H          -0.31451        3.64528        6.73887
C          -2.32567        4.11991        2.85171
H          -3.20846        4.55591        2.40056
C          -1.14175        3.78337        4.81421
C           1.43606        1.97565        3.19779
H           2.34480        1.41631        3.05402
N           0.92714        3.19549        8.29386
C           2.04297        2.50623        8.03709
N           2.49656        2.03051        6.83994
H           2.01762        2.14373        5.93691
C           2.99902        2.12337        8.97487
N           4.02132        1.42599        8.36893
N           1.64185        3.19247       10.57674
N           3.59854        2.19503       11.30978
H           3.37983        2.49310       12.24233
H           4.43993        1.68182       11.12459
C           0.80727        3.49567        9.58357
H          -0.07557        4.05539        9.86688
C           2.75549        2.50172       10.30417
C           3.68241        1.39542        7.10816
H           4.25723        0.92472        6.32833
